CAWCUB
 OpenBabel11181816573D

 64 72  0  0  0  0  0  0  0  0999 V2000
    3.8859    8.5990    3.8183 Co  0  7  0  0  0  0  0  0  0  0  0  0
    1.2159    6.8959    3.7968 B   0  6  1  0  0  0  0  0  0  0  0  0
    2.3016    6.0221    4.3536 O   0  3  0  0  0  0  0  0  0  0  0  0
    0.9832    8.0701    4.6817 O   0  3  0  0  0  0  0  0  0  0  0  0
    1.5161    7.3217    2.3926 O   0  0  0  0  0  0  0  0  0  0  0  0
    3.4325    6.7354    4.7020 N   0  3  0  0  0  0  0  0  0  0  0  0
    5.4930    8.1949    5.2070 N   0  3  0  0  0  0  0  0  0  0  0  0
    1.9854    9.0087    4.6315 N   0  3  0  0  0  0  0  0  0  0  0  0
    3.8916   10.7162    4.3382 N   0  3  0  0  0  0  0  0  0  0  0  0
    2.7853    7.8397    2.2307 N   0  3  0  0  0  0  0  0  0  0  0  0
    5.1839    8.7980    2.1067 N   0  3  0  0  0  0  0  0  0  0  0  0
    4.0111    4.8289    6.1535 C   0  0  0  0  0  0  0  0  0  0  0  0
    3.1098    4.5106    5.9378 H   0  0  0  0  0  0  0  0  0  0  0  0
    4.1114    4.8919    7.1261 H   0  0  0  0  0  0  0  0  0  0  0  0
    4.6726    4.2010    5.7963 H   0  0  0  0  0  0  0  0  0  0  0  0
    4.2213    6.1742    5.5428 C   0  0  0  0  0  0  0  0  0  0  0  0
    5.4037    7.0125    5.8695 C   0  0  0  0  0  0  0  0  0  0  0  0
    6.3441    6.6282    6.8189 C   0  0  0  0  0  0  0  0  0  0  0  0
    6.2479    5.8057    7.2855 H   0  0  0  0  0  0  0  0  0  0  0  0
    7.4250    7.4610    7.0779 C   0  0  0  0  0  0  0  0  0  0  0  0
    8.0793    7.2136    7.7196 H   0  0  0  0  0  0  0  0  0  0  0  0
    7.5378    8.6544    6.3921 C   0  0  0  0  0  0  0  0  0  0  0  0
    8.2742    9.2346    6.5409 H   0  0  0  0  0  0  0  0  0  0  0  0
    6.5445    8.9851    5.4775 C   0  0  0  0  0  0  0  0  0  0  0  0
    6.6133    9.8142    5.0187 H   0  0  0  0  0  0  0  0  0  0  0  0
    0.4245   10.4526    5.8663 C   0  0  0  0  0  0  0  0  0  0  0  0
   -0.1544    9.6622    5.8526 H   0  0  0  0  0  0  0  0  0  0  0  0
   -0.0150   11.1885    5.3896 H   0  0  0  0  0  0  0  0  0  0  0  0
    0.5939   10.7184    6.7937 H   0  0  0  0  0  0  0  0  0  0  0  0
    1.7211   10.1310    5.1967 C   0  0  0  0  0  0  0  0  0  0  0  0
    2.8093   11.1230    5.0512 C   0  0  0  0  0  0  0  0  0  0  0  0
    2.7098   12.3994    5.5777 C   0  0  0  0  0  0  0  0  0  0  0  0
    1.9430   12.6557    6.0751 H   0  0  0  0  0  0  0  0  0  0  0  0
    3.7464   13.3036    5.3704 C   0  0  0  0  0  0  0  0  0  0  0  0
    3.7138   14.1724    5.7523 H   0  0  0  0  0  0  0  0  0  0  0  0
    4.8266   12.9142    4.5940 C   0  0  0  0  0  0  0  0  0  0  0  0
    5.5340   13.5191    4.4073 H   0  0  0  0  0  0  0  0  0  0  0  0
    4.8505   11.6180    4.0957 C   0  0  0  0  0  0  0  0  0  0  0  0
    5.5855   11.3581    3.5541 H   0  0  0  0  0  0  0  0  0  0  0  0
    2.3561    7.7592   -0.1944 C   0  0  0  0  0  0  0  0  0  0  0  0
    1.4867    7.3930    0.0728 H   0  0  0  0  0  0  0  0  0  0  0  0
    2.8199    7.1154   -0.7694 H   0  0  0  0  0  0  0  0  0  0  0  0
    2.2207    8.5969   -0.6855 H   0  0  0  0  0  0  0  0  0  0  0  0
    3.1802    8.0233    1.0228 C   0  0  0  0  0  0  0  0  0  0  0  0
    4.5773    8.4993    0.9294 C   0  0  0  0  0  0  0  0  0  0  0  0
    5.2434    8.5742   -0.2840 C   0  0  0  0  0  0  0  0  0  0  0  0
    4.7893    8.3738   -1.0936 H   0  0  0  0  0  0  0  0  0  0  0  0
    6.5834    8.9445   -0.3036 C   0  0  0  0  0  0  0  0  0  0  0  0
    7.0604    8.9947   -1.1252 H   0  0  0  0  0  0  0  0  0  0  0  0
    7.2076    9.2399    0.8916 C   0  0  0  0  0  0  0  0  0  0  0  0
    8.1216    9.4990    0.9095 H   0  0  0  0  0  0  0  0  0  0  0  0
    6.4785    9.1501    2.0621 C   0  0  0  0  0  0  0  0  0  0  0  0
    6.9187    9.3469    2.8810 H   0  0  0  0  0  0  0  0  0  0  0  0
   -0.1471    6.0634    3.7426 C   0  0  0  0  0  0  0  0  0  0  0  0
   -0.1567    4.6707    3.6210 C   0  0  0  0  0  0  0  0  0  0  0  0
    0.6694    4.2018    3.6022 H   0  0  0  0  0  0  0  0  0  0  0  0
   -1.3475    3.9496    3.5260 C   0  0  0  0  0  0  0  0  0  0  0  0
   -1.3267    3.0021    3.4703 H   0  0  0  0  0  0  0  0  0  0  0  0
   -2.5645    4.6220    3.5136 C   0  0  0  0  0  0  0  0  0  0  0  0
   -3.3774    4.1376    3.4277 H   0  0  0  0  0  0  0  0  0  0  0  0
   -2.5845    6.0059    3.6281 C   0  0  0  0  0  0  0  0  0  0  0  0
   -3.4122    6.4708    3.6201 H   0  0  0  0  0  0  0  0  0  0  0  0
   -1.3860    6.7151    3.7542 C   0  0  0  0  0  0  0  0  0  0  0  0
   -1.4125    7.6595    3.8495 H   0  0  0  0  0  0  0  0  0  0  0  0
  1  6  1  0  0  0  0
  1  7  1  0  0  0  0
  1  8  1  0  0  0  0
  1  9  1  0  0  0  0
  1 10  1  0  0  0  0
  1 11  1  0  0  0  0
  2  3  1  0  0  0  0
  2  4  1  0  0  0  0
  2  5  1  0  0  0  0
  2 54  1  6  0  0  0
  3  6  1  0  0  0  0
  4  8  1  0  0  0  0
  5 10  1  0  0  0  0
  6 16  2  0  0  0  0
  7 17  2  0  0  0  0
  7 24  1  0  0  0  0
  8 30  2  0  0  0  0
  9 31  2  0  0  0  0
  9 38  1  0  0  0  0
 10 44  2  0  0  0  0
 11 45  2  0  0  0  0
 11 52  1  0  0  0  0
 12 13  1  0  0  0  0
 12 14  1  0  0  0  0
 12 15  1  0  0  0  0
 12 16  1  0  0  0  0
 16 17  1  0  0  0  0
 17 18  1  0  0  0  0
 18 19  1  0  0  0  0
 18 20  2  0  0  0  0
 20 21  1  0  0  0  0
 20 22  1  0  0  0  0
 22 23  1  0  0  0  0
 22 24  2  0  0  0  0
 24 25  1  0  0  0  0
 26 27  1  0  0  0  0
 26 28  1  0  0  0  0
 26 29  1  0  0  0  0
 26 30  1  0  0  0  0
 30 31  1  0  0  0  0
 31 32  1  0  0  0  0
 32 33  1  0  0  0  0
 32 34  2  0  0  0  0
 34 35  1  0  0  0  0
 34 36  1  0  0  0  0
 36 37  1  0  0  0  0
 36 38  2  0  0  0  0
 38 39  1  0  0  0  0
 40 41  1  0  0  0  0
 40 42  1  0  0  0  0
 40 43  1  0  0  0  0
 40 44  1  0  0  0  0
 44 45  1  0  0  0  0
 45 46  1  0  0  0  0
 46 47  1  0  0  0  0
 46 48  2  0  0  0  0
 48 49  1  0  0  0  0
 48 50  1  0  0  0  0
 50 51  1  0  0  0  0
 50 52  2  0  0  0  0
 52 53  1  0  0  0  0
 54 55  2  0  0  0  0
 54 63  1  0  0  0  0
 55 56  1  0  0  0  0
 55 57  1  0  0  0  0
 57 58  1  0  0  0  0
 57 59  2  0  0  0  0
 59 60  1  0  0  0  0
 59 61  1  0  0  0  0
 61 62  1  0  0  0  0
 61 63  2  0  0  0  0
 63 64  1  0  0  0  0
M  CHG  8   1  -3   2  -2   3   1   4   1   6   1   7   1   8   1   9   1
M  CHG  2  10   1  11   1
M  ZCH  7   1   0   2   0   3   0   4   0   6   0   8   0  10   0
M  HYD  6   3   0   4   0   5   0   7   0   9   0  11   0
M  ZBO  8   1   0   2   0   3   0   4   0   5   0   6   0   7   0   8   0
M  ZBO  1   9   0
M  END
