
  Mrv1827 11231811223D          

  0  0  0     0  0            999 V3000
M  V30 BEGIN CTAB
M  V30 COUNTS 63 68 0 0 0
M  V30 BEGIN ATOM
M  V30 1 Ni 11.1929 6.9796 0.9072 0 CHG=2
M  V30 2 S 4.077 3.167 4.2287 0
M  V30 3 S 4.0129 10.4486 -3.039 0
M  V30 4 O 11.1878 8.4095 2.4381 0
M  V30 5 O 12.6556 6.1133 2.11 0
M  V30 6 H 13.4261 5.7392 1.6476 0
M  V30 7 H 12.095 5.3147 2.4995 0
M  V30 8 O 9.8104 5.791 1.6867 0 CHG=-1
M  V30 9 N 6.9963 3.1748 4.1314 0
M  V30 10 O 10.9471 4.3369 2.9666 0
M  V30 11 O 11.5567 5.4815 -0.5822 0
M  V30 12 H 11.1353 4.7189 -0.1351 0
M  V30 13 O 12.6358 8.1195 -0.1825 0
M  V30 14 C 8.5834 4.2523 2.909 0
M  V30 15 C 7.3458 4.5883 2.3699 0
M  V30 16 N 4.4272 4.7325 2.1622 0
M  V30 17 C 0.3812 4.2041 2.9315 0
M  V30 18 H -0.6831 4.0511 3.142 0
M  V30 19 C 0.7563 5.038 1.8762 0
M  V30 20 H -0.0195 5.5213 1.272 0
M  V30 21 N 6.2603 9.5341 -1.8783 0
M  V30 22 N 4.2016 8.9491 -0.898 0
M  V30 23 C 9.8672 4.8209 2.4952 0
M  V30 24 N 7.0353 5.3665 1.3297 0
M  V30 25 N 6.4092 3.9439 3.1326 0
M  V30 26 C 5.0388 4.0307 3.0589 0
M  V30 27 C 3.0559 4.6186 2.3543 0
M  V30 28 C 2.6628 3.7923 3.4238 0
M  V30 29 C 1.3217 3.5674 3.7158 0
M  V30 30 H 1.0222 2.9152 4.5421 0
M  V30 31 C 2.0858 5.2401 1.5674 0
M  V30 32 H 2.3961 5.8651 0.7256 0
M  V30 33 C 8.2844 3.3686 3.9708 0
M  V30 34 H 8.9997 2.8802 4.6356 0
M  V30 35 O 9.6708 7.9553 0.0141 0 CHG=-1
M  V30 36 C 9.7001 8.8376 -0.9035 0
M  V30 37 C 8.4168 9.2706 -1.4619 0
M  V30 38 C 8.18 10.0907 -2.5908 0
M  V30 39 H 8.9451 10.5624 -3.2112 0
M  V30 40 N 6.9098 10.2761 -2.8609 0
M  V30 41 C 7.1519 8.9221 -1.0146 0
M  V30 42 N 6.7561 8.1554 0.0138 0 CFG=2
M  V30 43 H 5.7674 8.2036 0.2792 0
M  V30 44 H 7.4814 7.9385 0.6971 0
M  V30 45 C 4.8874 9.5468 -1.8204 0
M  V30 46 C 2.5423 10.0071 -2.2076 0
M  V30 47 C 1.2312 10.3462 -2.5156 0
M  V30 48 H 0.9988 10.9716 -3.3836 0
M  V30 49 C 0.2216 9.8752 -1.6909 0
M  V30 50 H -0.8184 10.1365 -1.9146 0
M  V30 51 C 0.5123 9.0808 -0.5841 0
M  V30 52 H -0.3036 8.7267 0.0556 0
M  V30 53 C 1.8152 8.7363 -0.2814 0
M  V30 54 H 2.0577 8.1281 0.5944 0
M  V30 55 C 2.8423 9.2068 -1.0959 0
M  V30 56 O 10.7659 9.3602 -1.3441 0
M  V30 57 H 7.809 5.8232 0.8482 0
M  V30 58 H 6.053 5.4919 1.0771 0
M  V30 59 H 13.007 7.5446 -0.8757 0
M  V30 60 H 11.9367 8.0217 2.9396 0
M  V30 61 H 11.9379 8.7208 -0.6904 0
M  V30 62 H 10.3989 8.2141 2.9788 0
M  V30 63 H 10.9161 5.7125 -1.2844 0
M  V30 END ATOM
M  V30 BEGIN BOND
M  V30 1 9 4 1
M  V30 2 9 5 1
M  V30 3 9 8 1
M  V30 4 9 11 1
M  V30 5 9 13 1
M  V30 6 9 35 1
M  V30 7 1 2 26
M  V30 8 1 2 28
M  V30 9 1 3 45
M  V30 10 1 3 46
M  V30 11 1 4 60
M  V30 12 1 4 62
M  V30 13 1 5 6
M  V30 14 1 5 7
M  V30 15 1 8 23
M  V30 16 1 9 25
M  V30 17 2 9 33
M  V30 18 2 10 23
M  V30 19 1 11 12
M  V30 20 1 11 63
M  V30 21 1 13 59
M  V30 22 1 13 61
M  V30 23 2 14 15
M  V30 24 1 14 23
M  V30 25 1 14 33
M  V30 26 1 15 24
M  V30 27 1 15 25
M  V30 28 2 16 26
M  V30 29 1 16 27
M  V30 30 1 17 18
M  V30 31 4 17 19
M  V30 32 4 17 29
M  V30 33 1 19 20
M  V30 34 4 19 31
M  V30 35 1 21 40
M  V30 36 1 21 41
M  V30 37 1 21 45
M  V30 38 2 22 45
M  V30 39 1 22 55
M  V30 40 1 24 57
M  V30 41 1 24 58
M  V30 42 1 25 26
M  V30 43 4 27 28
M  V30 44 4 27 31
M  V30 45 4 28 29
M  V30 46 1 29 30
M  V30 47 1 31 32
M  V30 48 1 33 34
M  V30 49 1 35 36
M  V30 50 1 36 37
M  V30 51 2 36 56
M  V30 52 1 37 38
M  V30 53 2 37 41
M  V30 54 1 38 39
M  V30 55 2 38 40
M  V30 56 1 41 42
M  V30 57 1 42 43
M  V30 58 1 42 44
M  V30 59 4 46 47
M  V30 60 4 46 55
M  V30 61 1 47 48
M  V30 62 4 47 49
M  V30 63 1 49 50
M  V30 64 4 49 51
M  V30 65 1 51 52
M  V30 66 4 51 53
M  V30 67 1 53 54
M  V30 68 4 53 55
M  V30 END BOND
M  V30 END CTAB
M  END
