?
 OpenBabel11131811573D

  0  0  0     0  0            999 V3000
M  V30 BEGIN CTAB
M  V30 COUNTS 36 29 0 0 0
M  V30 BEGIN ATOM
M  V30 1 H -5.0483 -4.58073 -1.73029 0
M  V30 2 N -4.80099 -4.25131 -0.937127 0 RAD=2
M  V30 3 H -4.1146 -3.70289 -1.02854 0
M  V30 4 H -2.13918 -1.01323 -2.19566 0
M  V30 5 C -3.04216 -0.73976 -2.08394 0
M  V30 6 C -3.40838 0.507097 -2.54654 0
M  V30 7 N -3.89266 -1.5878 -1.48579 0 RAD=3
M  V30 8 C -4.71979 0.910637 -2.40619 0 RAD=4
M  V30 9 H -2.76758 1.07869 -2.95466 0
M  V30 10 H -0.239261 2.84238 2.02962 0
M  V30 11 C 0.615911 2.8749 1.61688 0
M  V30 12 N 1.04416 4.03965 1.1227 0
M  V30 13 C 1.36693 1.71357 1.55132 0
M  V30 14 C 2.27369 4.07768 0.549477 0
M  V30 15 H 1.03857 0.904483 1.9262 0
M  V30 16 C 2.59461 1.75233 0.936363 0
M  V30 17 C 2.62112 5.43368 0.114576 0 RAD=4
M  V30 18 C 3.06789 2.95501 0.4239 0
M  V30 19 H 3.11793 0.962905 0.861571 0
M  V30 20 H 3.91604 3.00386 -0.0017672 0
M  V30 21 C -1.90413 -4.08155 -3.29446 0 RAD=4
M  V30 22 C -1.46861 -4.00022 -1.97313 0 RAD=3
M  V30 23 N -1.11823 -3.9094 -0.878679 0 RAD=2
M  V30 24 Co -0.480901 -3.49318 1.11365 0
M  V30 25 N 1.37874 -2.904 0.312266 0 RAD=2
M  V30 26 N 1.94394 -1.75055 -0.182837 0 RAD=2
M  V30 27 C 3.10846 -2.10419 -0.697978 0
M  V30 28 C 4.03664 -1.17292 -1.35448 0 RAD=2
M  V30 29 N 3.31704 -3.44435 -0.510537 0 RAD=2
M  V30 30 C 3.57505 0.0548326 -1.80878 0 RAD=2
M  V30 31 H 2.66301 0.299983 -1.71182 0
M  V30 32 N -0.514156 1.17212 4.16442 0
M  V30 33 C -0.928649 0.462365 4.96404 0 RAD=2
M  V30 34 H 4.20636 1.76549 -2.71551 0 RAD=2
M  V30 35 N -2.84774 7.26153 5.24567 0 RAD=4
M  V30 36 C -2.45076 -1.33712 5.56607 0 RAD=5
M  V30 END ATOM
M  V30 BEGIN BOND
M  V30 1 1 1 2
M  V30 2 1 3 2
M  V30 3 1 4 5
M  V30 4 2 6 5
M  V30 5 1 5 7
M  V30 6 1 9 6
M  V30 7 1 6 8
M  V30 8 1 11 10
M  V30 9 2 12 11
M  V30 10 1 13 11
M  V30 11 1 14 12
M  V30 12 2 16 13
M  V30 13 1 13 15
M  V30 14 1 17 14
M  V30 15 2 18 14
M  V30 16 1 18 16
M  V30 17 1 19 16
M  V30 18 1 20 18
M  V30 19 1 21 22
M  V30 20 1 22 23
M  V30 21 1 23 24
M  V30 22 1 25 24
M  V30 23 1 26 25
M  V30 24 1 27 26
M  V30 25 1 28 27
M  V30 26 2 27 29
M  V30 27 2 30 28
M  V30 28 1 30 31
M  V30 29 3 32 33
M  V30 END BOND
M  V30 END CTAB
M  END

